 62

  Cs    0.00000000    0.00000000    0.00000000
   I    3.15815000    3.15815000    0.00000000
   I    3.15815000   -3.15815000    0.00000000
   I   -3.15815000    3.15815000    0.00000000
   I   -3.15815000   -3.15815000    0.00000000
   I    3.15815000    0.00000000    3.15815000
   I    3.15815000    0.00000000   -3.15815000
   I   -3.15815000    0.00000000    3.15815000
   I   -3.15815000    0.00000000   -3.15815000
   I    0.00000000    3.15815000    3.15815000
   I    0.00000000    3.15815000   -3.15815000
   I    0.00000000   -3.15815000    3.15815000
   I    0.00000000   -3.15815000   -3.15815000
  Cs    0.00000000    0.00000000    6.31630000
   I    3.15815000    3.15815000    6.31630000
   I    3.15815000   -3.15815000    6.31630000
   I   -3.15815000    3.15815000    6.31630000
   I   -3.15815000   -3.15815000    6.31630000
   I    3.15815000    0.00000000    9.47445000
   I   -3.15815000    0.00000000    9.47445000
   I    0.00000000    3.15815000    9.47445000
   I    0.00000000   -3.15815000    9.47445000
  Cs    0.00000000    6.31630000    0.00000000
   I    3.15815000    9.47445000    0.00000000
   I   -3.15815000    9.47445000    0.00000000
   I    3.15815000    6.31630000    3.15815000
   I    3.15815000    6.31630000   -3.15815000
   I   -3.15815000    6.31630000    3.15815000
   I   -3.15815000    6.31630000   -3.15815000
   I    0.00000000    9.47445000    3.15815000
   I    0.00000000    9.47445000   -3.15815000
  Cs    0.00000000    6.31630000    6.31630000
   I    3.15815000    9.47445000    6.31630000
   I   -3.15815000    9.47445000    6.31630000
   I    3.15815000    6.31630000    9.47445000
   I   -3.15815000    6.31630000    9.47445000
   I    0.00000000    9.47445000    9.47445000
  Cs    6.31630000    0.00000000    0.00000000
   I    9.47445000    3.15815000    0.00000000
   I    9.47445000   -3.15815000    0.00000000
   I    9.47445000    0.00000000    3.15815000
   I    9.47445000    0.00000000   -3.15815000
   I    6.31630000    3.15815000    3.15815000
   I    6.31630000    3.15815000   -3.15815000
   I    6.31630000   -3.15815000    3.15815000
   I    6.31630000   -3.15815000   -3.15815000
  Cs    6.31630000    0.00000000    6.31630000
   I    9.47445000    3.15815000    6.31630000
   I    9.47445000   -3.15815000    6.31630000
   I    9.47445000    0.00000000    9.47445000
   I    6.31630000    3.15815000    9.47445000
   I    6.31630000   -3.15815000    9.47445000
  Cs    6.31630000    6.31630000    0.00000000
   I    9.47445000    9.47445000    0.00000000
   I    9.47445000    6.31630000    3.15815000
   I    9.47445000    6.31630000   -3.15815000
   I    6.31630000    9.47445000    3.15815000
   I    6.31630000    9.47445000   -3.15815000
  Cs    6.31630000    6.31630000    6.31630000
   I    9.47445000    9.47445000    6.31630000
   I    9.47445000    6.31630000    9.47445000
   I    6.31630000    9.47445000    9.47445000
