 44

  Pb    2.98911106    3.11619343    3.02138163
   I    3.15815000    3.15815000    0.00000000
   I    3.15815000    3.15815000    6.31630000
   I    3.15815000    0.00000000    3.15815000
   I    3.15815000    6.31630000    3.15815000
   I    0.00000000    3.15815000    3.15815000
   I    6.31630000    3.15815000    3.15815000
  Pb    3.16612687    3.17028010    9.33949306
   I    3.15815000    3.15815000   12.63260000
   I    3.15815000    0.00000000    9.47445000
   I    3.15815000    6.31630000    9.47445000
   I    0.00000000    3.15815000    9.47445000
   I    6.31630000    3.15815000    9.47445000
  Pb    3.06839402    9.39053432    3.31765251
   I    3.15815000    9.47445000    0.00000000
   I    3.15815000    9.47445000    6.31630000
   I    3.15815000   12.63260000    3.15815000
   I    0.00000000    9.47445000    3.15815000
   I    6.31630000    9.47445000    3.15815000
  Pb    2.92680800    9.44419880    9.38023010
   I    3.15815000    9.47445000   12.63260000
   I    3.15815000   12.63260000    9.47445000
   I    0.00000000    9.47445000    9.47445000
   I    6.31630000    9.47445000    9.47445000
  Pb    9.22746809    2.99105378    3.18599750
   I    9.47445000    3.15815000    0.00000000
   I    9.47445000    3.15815000    6.31630000
   I    9.47445000    0.00000000    3.15815000
   I    9.47445000    6.31630000    3.15815000
   I   12.63260000    3.15815000    3.15815000
  Pb    9.51298908    3.04573267    9.34783890
   I    9.47445000    3.15815000   12.63260000
   I    9.47445000    0.00000000    9.47445000
   I    9.47445000    6.31630000    9.47445000
   I   12.63260000    3.15815000    9.47445000
  Pb    9.53888629    9.62122930    3.13954841
   I    9.47445000    9.47445000    0.00000000
   I    9.47445000    9.47445000    6.31630000
   I    9.47445000   12.63260000    3.15815000
   I   12.63260000    9.47445000    3.15815000
  Pb    9.45281282    9.29573758    9.41044133
   I    9.47445000    9.47445000   12.63260000
   I    9.47445000   12.63260000    9.47445000
   I   12.63260000    9.47445000    9.47445000
