220
Properties=species:S:1:pos:R:3 XYZ=T file=T pbc="F F F"
Au       5.32875000       8.79194500       8.93623900
Au       5.57596000       3.26499400       8.21888200
Au       7.68369400       9.67823200      10.95363000
Au       3.22101400       2.37870700       6.20149100
Au       9.46827600       6.63554300      11.29220400
Au       1.43643300       5.42139600       5.86291700
Au       7.45183700       4.56229800       9.83515100
Au       3.45287200       7.49464200       7.31997000
Au       3.42321800       6.96027300      10.23450500
Au       7.48149100       5.09666600       6.92061600
Au       2.31778700       9.78345700       9.00129100
Au       8.58692200       2.27348300       8.15383000
Au       4.63649400      10.33910500       6.34724000
Au       6.26821400       1.71783500      10.80788000
Au       6.22994400       7.56484600       6.40711200
Au       4.67476500       4.49209400      10.74800900
Au       6.25982300       6.94099200      11.06604800
Au       4.64488600       5.11594800       6.08907300
Au       3.96864000       6.33148800      13.22083400
Au       6.93606900       5.72545100       3.93428700
Au       1.56927100       4.64413800      11.19714700
Au       9.33543800       7.41280200       5.95797300
Au       3.02319700       4.73797400       8.33514100
Au       7.88151300       7.31896500       8.81998000
Au       5.45235400       6.02847000       8.57756000
H        3.34485908      10.60029155      11.93788754
C        3.46287065      11.69203916      11.71171193
N        2.56519021      11.98533717      10.57075244
H        2.58358295      12.96088575      10.35666663
H        1.63372930      11.71058796      10.79794388
C        4.91805575      11.97406291      11.32430023
H        5.00714762      12.96097607      10.83073001
C        3.11356129      12.49315147      12.97182895
O        2.41784654      13.48400767      13.04140170
O        3.56864356      12.13353475      14.19105427
H        4.11863308      11.36202558      14.13130761
S        5.70087900      10.67629500      10.32360800
H        5.55099518      12.03695635      12.23250512
H        4.29677132       1.66551841       4.13733407
C        5.40636973       1.79851236       4.04733977
N        5.95539115       0.48752297       3.63077671
H        6.94022325       0.55640326       3.47837168
H        5.50751068       0.18803358       2.79147242
C        5.97972365       2.20193001       5.40958364
H        7.07839945       2.06718105       5.42692490
C        5.68453382       2.91530073       3.03387970
O        6.49976397       2.90445262       2.13613946
O        4.99266369       4.07464798       3.04669065
H        4.36080821       4.08211320       3.75520139
S        5.20383100       1.38064500       6.83151200
H        5.80914450       3.28216596       5.59233231
H       11.60531033      11.05525800      11.63426283
C       10.66144201      11.54235953      11.99320526
N       10.75301540      11.60100892      13.47030276
H        9.96118270      12.07846070      13.84833295
H       11.58829454      12.07705674      13.73565109
C        9.46029856      10.68949175      11.57242044
H        8.55563094      10.98099367      12.14000271
C       10.54770365      12.92668970      11.34329261
O       10.24981371      13.96937588      11.88617613
O       10.79827935      13.11779948      10.03042426
H       11.02386725      12.29823209       9.60769039
S        9.73409200       8.89654800      11.66616800
H        9.21514002      10.87239746      10.50665930
H        0.39811700       0.86509100       3.97325300
C        0.76901700       1.57479100       3.18855300
N        2.16841700       1.18689100       2.89725300
H        2.53851700       1.75069100       2.16035300
H        2.20151700       0.22609100       2.63175300
C        0.72091700       3.00479100       3.73625300
H        1.33101700       3.68409100       3.11025300
C       -0.14918300       1.47389100       1.96445300
O        0.18521700       1.39929100       0.80115300
O       -1.49358300       1.44419100       2.08545300
H       -1.75138300       1.51019100       2.99675300
S        1.17061700       3.16039100       5.48895300
H       -0.31358300       3.40039100       3.68415300
H        9.98195299       5.21727304       8.49679315
C       10.86611359       4.57163923       8.73847894
N       10.59452428       3.24421533       8.14029210
H       11.37615944       2.63679280       8.27427123
H       10.41439573       3.34677914       7.16471183
C       11.00115601       4.44735500      10.25950026
H       11.67250248       3.60818374      10.52526707
C       12.12696293       5.23776141       8.17435745
O       13.02140730       4.70566176       7.55186678
O       12.35751845       6.56008440       8.32009864
H       11.65892323       6.97145442       8.81408645
S        9.42460000       4.32348900      11.15254400
H       11.48027266       5.35591255      10.67708191
H       -1.32603628       7.19923634       5.95092253
C       -1.27704351       8.26903582       6.28277155
N       -1.50155172       9.09563712       5.07447986
H       -1.52543526      10.06452664       5.31644833
H       -2.36455859       8.83663713       4.64685777
C        0.11012487       8.55448286       6.86712827
H        0.28665220       9.64487358       6.94083503
C       -2.33620035       8.49323861       7.36887135
O       -3.11180604       9.42138584       7.45624392
O       -2.51642670       7.61403800       8.37756317
H       -1.90265999       6.89295046       8.30968292
S        1.48010900       7.73345100       6.00257700
H        0.17459611       8.17138332       7.90562825
H        3.87924041      14.10689144       7.75523040
C        2.80374600      14.23194742       7.46425315
N        2.05243786      14.46674853       8.71886345
H        1.08962632      14.64255719       8.51898519
H        2.44164178      15.24807181       9.20133287
C        2.31071267      12.94971376       6.78603203
H        1.20466880      12.93038367       6.74313922
C        2.69742411      15.39774878       6.47364945
O        1.88423654      16.29733986       6.48447876
O        3.56306892      15.53885372       5.44715888
H        4.19328381      14.82890474       5.43787629
S        2.95794500      11.41386400       7.50759600
H        2.65033957      12.91943919       5.73097704
H        6.61533213      -1.78044897      10.36608214
C        7.12170566      -2.04503941       9.40142015
N        8.38214714      -2.73397476       9.76238801
H        8.85467988      -3.04644346       8.93962305
H        8.18101979      -3.51496085      10.34918527
C        7.42627110      -0.76209184       8.62137251
H        8.16213129      -0.95826068       7.81789627
C        6.17309189      -2.92252189       8.57567850
O        6.44923641      -3.94233535       7.98038015
O        4.86321874      -2.62317491       8.44317127
H        4.65271583      -1.82051407       8.90437472
S        7.94676500       0.64307500       9.64752600
H        6.51295083      -0.40047483       8.10709315
H        5.60486600       7.21977100       3.54797700
C        5.97576600       7.92947100       2.76327700
N        7.37516600       7.54157100       2.47197700
H        7.74526600       8.10537100       1.73507700
H        7.40826600       6.58077100       2.20647700
C        5.92766600       9.35947100       3.31097700
H        6.53776600      10.03877100       2.68497700
C        5.05756600       7.82857100       1.53917700
O        5.39196600       7.75397100       0.37587700
O        3.71316600       7.79887100       1.66017700
H        3.45536600       7.86487100       2.57147700
S        6.37736600       9.51507100       5.06367700
H        4.89316600       9.75507100       3.25887700
H        3.44643133       4.17622694      14.17062789
C        4.17095942       3.51710327      14.71616436
N        5.41886014       4.29980849      14.87030319
H        6.08884597       3.78350803      15.40173416
H        5.21921356       5.16152757      15.33106775
C        4.43662838       2.25905523      13.88314334
H        5.34069231       1.73329841      14.24617870
C        3.54800364       3.11017086      16.05706890
O        4.08502553       3.10763905      17.14438508
O        2.26282290       2.70692159      16.14999329
H        1.84826243       2.70327400      15.29593777
S        4.52734300       2.54186800      12.09144400
H        3.60372622       1.53708083      14.00327230
H        0.68921499      10.17929655      12.83760937
C        0.11740033       9.23332455      13.02511929
N        0.82377724       8.52331729      14.11624889
H        0.32741059       7.69408694      14.36896063
H        0.90105689       9.12164012      14.91045299
C        0.11929839       8.38027631      11.75252587
H       -0.18263401       7.33953002      11.97886739
C       -1.32820228       9.59852145      13.38366800
O       -1.99764371       9.14189510      14.28588524
O       -2.01892991      10.52829475      12.68987307
H       -1.49410515      10.87788485      11.98020394
S        1.67722300       8.41449400      10.81973500
H       -0.63613184       8.76036675      11.03540633
H        8.80092466       7.92430518      14.05739937
C        8.65528496       7.03492319      14.72432047
N        9.28342756       5.88420963      14.03516327
H        9.23552583       5.06787841      14.60890086
H       10.23702056       6.09475240      13.83254383
C        7.15571541       6.78326207      14.91179511
H        6.97725756       5.76986795      15.32012299
C        9.28890372       7.33698389      16.08776444
O       10.00032194       6.60612634      16.74380313
O        9.10845363       8.52265778      16.70788511
H        8.54521028       9.08897794      16.19473510
S        6.14792500       7.07072400      13.42851400
H        6.74057573       7.48469523      15.66349624
H       10.78155227       8.40073421       2.54149641
C       10.62068984       7.62225604       1.75087007
N        9.52484489       8.11910345       0.88720986
H        9.37149750       7.49121015       0.12556647
H        9.75953997       9.02182290       0.53402673
C       10.21246477       6.30339369       2.41505626
H        9.77907708       5.60822026       1.67043857
C       11.93720800       7.41673179       0.99177023
O       12.08708766       7.34165733      -0.20929402
O       13.11895205       7.30814954       1.63568431
H       12.99646538       7.36003828       2.57567852
S        9.11215200       6.48563900       3.84840800
H       11.10541310       5.78637611       2.82093816
H        0.37538967       1.11300351       8.07344307
C        0.53831328       0.88551233       9.15912196
N       -0.79981666       0.88065969       9.79396617
H       -0.72588738       0.62695774      10.75731234
H       -1.39228307       0.23181114       9.32205346
C        1.41280893       1.97975979       9.77966104
H        1.35986809       1.94292373      10.88482477
C        1.26190463      -0.46173011       9.27334198
O        0.99867052      -1.37377972      10.02801325
O        2.31239218      -0.77296311       8.48432716
H        2.51982255      -0.05382280       7.90029429
S        1.07406100       3.65681100       9.17044200
H        2.47856081       1.80794440       9.52656733
H       12.35949530       9.56303774       7.34041814
C       12.30241678       9.67970457       8.45402754
N       13.06789103       8.55292207       9.03545063
H       13.10141553       8.63313448      10.03059290
H       13.99538715       8.55328453       8.66874458
C       10.83735356       9.60610814       8.89602555
H       10.76623496       9.43530432       9.98749919
C       12.87347279      11.05183328       8.83198347
O       13.65034605      11.30086784       9.72925999
O       12.55012686      12.16913212       8.14639966
H       11.93632853      11.97115656       7.44973488
S        9.83064700       8.40012800       7.98467900
H       10.33272191      10.57625187       8.71279875
